Circuit: Caleb Alexander

Direct Newton iteration for .op point succeeded.

Date: Wed Jul 11 20:04:51 2018
Total elapsed time: 0.057 seconds.

tnom = 27
temp = 27
method = modified trap
totiter = 2116
traniter = 2098
tranpoints = 1050
accept = 1050
rejected = 0
matrix size = 32
fillins = 34
solver = Normal
Matrix Compiler1: 3.09 KB object code size  0.7/0.4/[0.3]
Matrix Compiler2: off  [0.3]/0.4/0.4

